<edges>
    <edge id="AtoB" from="A" to="B"/>
</edges>

